Circuit: * C:\Users\JSR\Documents\Hochschule\ANS\ASLK_PRO\docs\spice\Experiment_06\Multiplizierer.asc

Direct Newton iteration failed to find .op point.  (Use ".option noopiter" to skip.)
Starting Gmin stepping
Gmin = 10
Gmin = 1.07374
vernier = 0.5
vernier = 0.25
vernier = 0.125
vernier = 0.0625
Gmin = 1.08884
vernier = 0.03125
vernier = 0.015625
Gmin = 1.03122
vernier = 0.0078125
vernier = 0.00390625
Gmin = 1.01823
vernier = 0.00520833
vernier = 0.00260417
Gmin = 1.01162
vernier = 0.00347222
vernier = 0.00173611
vernier = 0.00231481
vernier = 0.00115741
Gmin = 1.00877
vernier = 0.00154321
vernier = 0.000771604
Gmin = 1.00673
vernier = 0.00102881
vernier = 0.000514403
vernier = 0.00068587
Gmin = 1.00553
vernier = 0.000514403
vernier = 0.00068587
vernier = 0.000514402
Gmin = 1.00475
Gmin = 0
Gmin stepping failed

Starting source stepping with srcstepmethod=0
Source Step = 3.0303%
Source Step = 33.3333%
Source Step = 63.6364%
Source Step = 93.9394%
Source stepping succeeded in finding the operating point.


Date: Thu May 23 13:00:11 2019
Total elapsed time: 0.555 seconds.

tnom = 27
temp = 27
method = modified trap
totiter = 28738
traniter = 22831
tranpoints = 6413
accept = 4910
rejected = 1503
matrix size = 22
fillins = 30
solver = Normal
Matrix Compiler1: 2.09 KB object code size  0.6/0.3/[0.2]
Matrix Compiler2: off  [0.3]/0.6/0.4

