Circuit: * Z:\home\alexander\Hochschule\Projekte\ASLK_PRO\docs\spice\Experiment_01\Aufgabe 1.3.2\Experiment_01.asc

Direct Newton iteration for .op point succeeded.

Date: Sat Mar 09 21:27:06 2019
Total elapsed time: 0.032 seconds.

tnom = 27
temp = 27
method = trap
totiter = 18
traniter = 0
tranpoints = 0
accept = 0
rejected = 0
matrix size = 74
fillins = 102
solver = Normal
Matrix Compiler1:     484 opcodes
Matrix Compiler2: 8.15 KB object code size

