Circuit: * C:\users\selimcimen\Meine Dokumente\LTspice\Analoge_Schaltungen\Experiment_02\Aufgabe 2.2.3\astabile_kippstufe.asc

Direct Newton iteration for .op point succeeded.

Date: Wed Feb 20 18:05:52 2019
Total elapsed time: 0.092 seconds.

tnom = 27
temp = 27
method = modified trap
totiter = 4010
traniter = 3992
tranpoints = 1575
accept = 1395
rejected = 180
matrix size = 28
fillins = 44
solver = Normal
Matrix Compiler1: 3.65 KB object code size  0.9/0.4/[0.3]
Matrix Compiler2: 3.11 KB object code size  0.4/0.4/[0.3]

