Circuit: * Z:\home\alexander\Hochschule\Projekte\ASLK_PRO\docs\spice\Experiment_02\Aufgabe 2.2.3\monostabile_kippstufe.asc

Direct Newton iteration for .op point succeeded.

Date: Wed Mar 13 17:55:46 2019
Total elapsed time: 0.113 seconds.

tnom = 27
temp = 27
method = modified trap
totiter = 2726
traniter = 2706
tranpoints = 1241
accept = 1211
rejected = 30
matrix size = 30
fillins = 47
solver = Normal
Matrix Compiler1: 3.79 KB object code size  1.6/0.9/[0.8]
Matrix Compiler2: off  [0.9]/1.0/1.0


