Circuit: * C:\users\selimcimen\Meine Dokumente\LTspice\Analoge_Schaltungen\Experiment_02\Aufgabe 2.2.3\monostabile_kippstufe.asc

Direct Newton iteration failed to find .op point.  (Use ".option noopiter" to skip.)
Starting Gmin stepping
Increasing initial diagonal Gmin to 100
Gmin = 100
vernier = 0.5
vernier = 0.25
Gmin = 34.2672
vernier = 0.125
vernier = 0.0625
vernier = 0.03125
vernier = 0.015625
Gmin = 33.0995
vernier = 0.0078125
vernier = 0.00390625
vernier = 0.00195313
Gmin = 32.9705
vernier = 0.000976563
vernier = 0.000488281
Gmin = 0
Gmin stepping succeeded in finding the operating point.


Date: Thu Feb 21 12:53:29 2019
Total elapsed time: 0.151 seconds.

tnom = 27
temp = 27
method = modified trap
totiter = 4336
traniter = 2836
tranpoints = 1293
accept = 1253
rejected = 40
matrix size = 30
fillins = 61
solver = Normal
Matrix Compiler1: 4.25 KB object code size  0.8/0.5/[0.3]
Matrix Compiler2: 3.53 KB object code size  0.6/0.6/[0.3]

