Circuit: * C:\Users\Jan Frost\Desktop\ANS\ASLK_PRO\docs\spice\Experiment_11\11_1_1.asc

V1: Missing value, assumed 0V @ DC
Ignoring empty pin current: Ix(u1:en)

Date: Thu Jun 20 15:38:54 2019
Total elapsed time: 0.115 seconds.

tnom = 27
temp = 27
method = trap
totiter = 29
traniter = 0
tranpoints = 0
accept = 0
rejected = 0
matrix size = 32
fillins = 13
solver = Normal
Matrix Compiler1: 1.68 KB object code size
Matrix Compiler2: 2.31 KB object code size
