Circuit: * C:\Users\Jan Frost\Desktop\ANS\ASLK_PRO\docs\spice\Experiment_11\11_1_1.asc

Ignoring empty pin current: Ix(u1:en)

Date: Fri Jun 28 16:44:04 2019
Total elapsed time: 0.078 seconds.

tnom = 27
temp = 27
method = trap
totiter = 33
traniter = 0
tranpoints = 0
accept = 0
rejected = 0
matrix size = 33
fillins = 13
solver = Normal
Matrix Compiler1: 1.70 KB object code size
Matrix Compiler2: 2.35 KB object code size
