Circuit: * C:\Users\Jan Frost\Desktop\ANS\ASLK_PRO\docs\spice\Experiment_11\11_1_1.asc

WARNING: Less than two connections to node LAST.  This node is used by V2.
Ignoring empty pin current: Ix(u1:en)

Date: Fri Jun 28 10:36:20 2019
Total elapsed time: 0.125 seconds.

tnom = 27
temp = 27
method = trap
totiter = 2011
traniter = 0
tranpoints = 0
accept = 0
rejected = 0
matrix size = 35
fillins = 13
solver = Normal
Matrix Compiler1: 1.72 KB object code size  1.5/1.1/[0.8]
Matrix Compiler2: 2.42 KB object code size  0.7/1.4/[0.5]

