Circuit: * MPY634_BEHAVIORAL

Fatal Error: No analysis request found.
