Circuit: * C:\users\selimcimen\Meine Dokumente\LTspice\Analoge_Schaltungen\Experiment_01\noninv.asc

Direct Newton iteration for .op point succeeded.

Date: Tue Feb 19 15:45:33 2019
Total elapsed time: 0.059 seconds.

tnom = 27
temp = 27
method = modified trap
totiter = 2112
traniter = 2094
tranpoints = 1048
accept = 1048
rejected = 0
matrix size = 29
fillins = 32
solver = Normal
Matrix Compiler1: 2.77 KB object code size  0.7/0.4/[0.3]
Matrix Compiler2: 2.94 KB object code size  0.3/0.4/[0.3]

