Circuit: * C:\users\selimcimen\Meine Dokumente\LTspice\Analoge_Schaltungen\Experiment_01\UnityGain.asc

Early termination of direct N-R iteration.
Direct Newton iteration failed to find .op point.  (Use ".option noopiter" to skip.)
Starting Gmin stepping
Gmin = 10
vernier = 0.5
vernier = 0.25
vernier = 0.125
Gmin = 5.5165
vernier = 0.0625
vernier = 0.03125
vernier = 0.015625
vernier = 0.0078125
Gmin = 5.49501
vernier = 0.00390625
vernier = 0.00195313
vernier = 0.000976563
vernier = 0.000488281
Gmin = 5.50104
Gmin = 0
Gmin stepping succeeded in finding the operating point.


Date: Tue Feb 19 15:44:05 2019
Total elapsed time: 0.157 seconds.

tnom = 27
temp = 27
method = modified trap
totiter = 3507
traniter = 2096
tranpoints = 1048
accept = 1047
rejected = 1
matrix size = 26
fillins = 105
solver = Normal
Matrix Compiler1: 7.67 KB object code size  1.4/0.8/[0.4]
Matrix Compiler2: 3.97 KB object code size  0.6/0.6/[0.3]

