Circuit: * Z:\home\alexander\Hochschule\Projekte\ASLK_PRO\docs\spice\Experiment_03\Aufgabe 3.3.1\Response_square_Differentiator.asc

Direct Newton iteration for .op point succeeded.

Date: Thu Mar 07 13:42:15 2019
Total elapsed time: 0.425 seconds.

tnom = 27
temp = 27
method = modified trap
totiter = 25040
traniter = 25023
tranpoints = 8838
accept = 6550
rejected = 2288
matrix size = 29
fillins = 42
solver = Normal
Matrix Compiler1: 3.63 KB object code size  3.1/1.9/[1.6]
Matrix Compiler2: 3.05 KB object code size  1.8/2.0/[1.6]


