Circuit: * Z:\home\alexander\Hochschule\Projekte\ASLK_PRO\docs\spice\Experiment_03\Aufgabe 3.3.1\Response_triangular_Differentiator.asc

Direct Newton iteration for .op point succeeded.

Date: Thu Mar 07 13:43:07 2019
Total elapsed time: 0.356 seconds.

tnom = 27
temp = 27
method = modified trap
totiter = 19820
traniter = 19803
tranpoints = 9899
accept = 7199
rejected = 2700
matrix size = 29
fillins = 42
solver = Normal
Matrix Compiler1: 3.63 KB object code size  2.3/1.9/[2.0]
Matrix Compiler2: off  [1.5]/2.5/2.0


