Circuit: * Z:\home\alexander\Hochschule\Projekte\ASLK_PRO\docs\spice\Experiment_03\Aufgabe 3.3.1\Response_square_Integrator.asc

Direct Newton iteration for .op point succeeded.

Date: Thu Mar 07 13:41:33 2019
Total elapsed time: 0.108 seconds.

tnom = 27
temp = 27
method = modified trap
totiter = 3710
traniter = 3690
tranpoints = 1823
accept = 1774
rejected = 49
matrix size = 29
fillins = 40
solver = Normal
Matrix Compiler1: 3.52 KB object code size  3.0/1.5/[1.3]
Matrix Compiler2: off  [1.5]/1.6/1.7


