Circuit: * C:\Users\cimen\Desktop\Ex_01\DCsweep.asc


Date: Thu Feb 14 10:29:49 2019
Total elapsed time: 0.016 seconds.

tnom = 27
temp = 27
method = trap
totiter = 144
traniter = 0
tranpoints = 0
accept = 0
rejected = 0
matrix size = 29
fillins = 32
solver = Normal
Matrix Compiler1: 2.77 KB object code size  0.7/0.3/[0.2]
Matrix Compiler2: 2.94 KB object code size  0.3/0.4/[0.2]

