Circuit: * Z:\home\alexander\Hochschule\Projekte\ASLK_PRO\docs\spice\Experiment_01\DCsweep.asc


Date: Tue Feb 19 07:57:14 2019
Total elapsed time: 0.038 seconds.

tnom = 27
temp = 27
method = trap
totiter = 144
traniter = 0
tranpoints = 0
accept = 0
rejected = 0
matrix size = 29
fillins = 32
solver = Normal
Matrix Compiler1: 2.77 KB object code size  1.9/1.2/[1.1]
Matrix Compiler2: 2.94 KB object code size  1.3/1.3/[1.1]


