Circuit: * Z:\home\alexander\Hochschule\Projekte\ASLK_PRO\docs\spice\Experiment_01\Inv.asc

Direct Newton iteration for .op point succeeded.

Date: Tue Feb 19 15:00:24 2019
Total elapsed time: 0.048 seconds.

tnom = 27
temp = 27
method = modified trap
totiter = 2112
traniter = 2094
tranpoints = 1048
accept = 1047
rejected = 1
matrix size = 29
fillins = 32
solver = Normal
Matrix Compiler1: 2.75 KB object code size  1.2/0.8/[0.8]
Matrix Compiler2: 2.91 KB object code size  0.9/1.0/[0.9]


