Circuit: * Z:\home\alexander\Hochschule\Projekte\ASLK_PRO\docs\spice\Experiment_01\noninv.asc

Direct Newton iteration for .op point succeeded.

Date: Tue Feb 19 14:49:25 2019
Total elapsed time: 0.150 seconds.

tnom = 27
temp = 27
method = modified trap
totiter = 2112
traniter = 2094
tranpoints = 1048
accept = 1048
rejected = 0
matrix size = 29
fillins = 32
solver = Normal
Matrix Compiler1: 2.77 KB object code size  1.4/0.8/[0.8]
Matrix Compiler2: off  [0.9]/1.0/1.0


