Circuit: * Z:\home\alexander\Hochschule\Projekte\ASLK_PRO\docs\spice\Experiment_01\UnityGain.asc

Early termination of direct N-R iteration.
Direct Newton iteration failed to find .op point.  (Use ".option noopiter" to skip.)
Starting Gmin stepping
Gmin = 10
vernier = 0.5
vernier = 0.25
vernier = 0.125
Gmin = 5.5165
vernier = 0.0625
vernier = 0.03125
vernier = 0.015625
vernier = 0.0078125
Gmin = 5.49501
vernier = 0.00390625
vernier = 0.00195313
vernier = 0.000976563
vernier = 0.000488281
Gmin = 5.50104
Gmin = 0
Gmin stepping failed

Starting source stepping with srcstepmethod=0
Source Step = 3.0303%
Source Step = 33.3333%
Source Step = 63.6364%
Source Step = 93.9394%
Source stepping succeeded in finding the operating point.


Date: Tue Feb 19 14:00:11 2019
Total elapsed time: 0.977 seconds.

tnom = 27
temp = 27
method = modified trap
totiter = 84129
traniter = 82462
tranpoints = 41126
accept = 26520
rejected = 14606
matrix size = 26
fillins = 109
solver = Normal
Matrix Compiler1: 8.89 KB object code size  2.5/1.4/[1.2]
Matrix Compiler2: 4.02 KB object code size  1.2/1.6/[1.0]


