Circuit: * C:\users\selimcimen\Meine Dokumente\LTspice\Analoge_Schaltungen\Experiment_02\Aufgabe 2.2.2\triangle_input_inv.asc

WARNING: Specified period is not longer than the sum of Trise, Tfall, and Ton for vg.  Increasing period to 0.001
Direct Newton iteration for .op point succeeded.

Date: Wed Feb 20 16:25:05 2019
Total elapsed time: 0.110 seconds.

tnom = 27
temp = 27
method = modified trap
totiter = 4683
traniter = 4644
tranpoints = 1790
accept = 1613
rejected = 177
matrix size = 29
fillins = 49
solver = Normal
Matrix Compiler1: 3.14 KB object code size  0.6/0.4/[0.3]
Matrix Compiler2: 3.25 KB object code size  0.3/0.5/[0.3]

