Circuit: * C:\users\selimcimen\Meine Dokumente\LTspice\Analoge_Schaltungen\Experiment_02\Aufgabe 2.2.2\triangle_input.asc

WARNING: Specified period is not longer than the sum of Trise, Tfall, and Ton for vg.  Increasing period to 0.001
Direct Newton iteration for .op point succeeded.

Date: Wed Feb 20 16:25:44 2019
Total elapsed time: 0.104 seconds.

tnom = 27
temp = 27
method = modified trap
totiter = 4428
traniter = 4403
tranpoints = 1691
accept = 1551
rejected = 140
matrix size = 29
fillins = 45
solver = Normal
Matrix Compiler1: 3.14 KB object code size  0.7/0.3/[0.3]
Matrix Compiler2: 3.13 KB object code size  0.4/0.4/[0.4]

