Circuit: * C:\Users\Jan Frost\Desktop\Neuer Ordner\ASLK_PRO\docs\spice\Experiment_08\8_1_1.asc

Direct Newton iteration for .op point succeeded.

Date: Thu May 23 15:42:10 2019
Total elapsed time: 0.261 seconds.

tnom = 27
temp = 27
method = modified trap
totiter = 9236
traniter = 9209
tranpoints = 2924
accept = 2293
rejected = 631
matrix size = 32
fillins = 54
solver = Normal
Matrix Compiler1: 3.84 KB object code size  2.4/1.5/[1.2]
Matrix Compiler2: 3.45 KB object code size  1.0/1.7/[0.9]

