Circuit: * C:\Users\Hann17-2-Stud02.AUSBBNETZA\Desktop\HS Bremen\19 SoSe\ANS\Simulation\Experiment_04.asc

Early termination of direct N-R iteration.
Direct Newton iteration failed to find .op point.  (Use ".option noopiter" to skip.)
Starting Gmin stepping
Gmin = 10
vernier = 0.5
vernier = 0.25
vernier = 0.125
Gmin = 5.5165
vernier = 0.0625
vernier = 0.03125
vernier = 0.015625
vernier = 0.0078125
Gmin = 5.49501
vernier = 0.00390625
vernier = 0.00195313
vernier = 0.000976563
vernier = 0.000488281
Gmin = 5.50104
Gmin = 0
Gmin stepping failed

Starting source stepping with srcstepmethod=0
Source Step = 3.0303%
Source Step = 33.3333%
Source Step = 63.6364%
Source Step = 93.9394%
Source stepping succeeded in finding the operating point.


Date: Fri Apr 26 08:06:51 2019
Total elapsed time: 0.437 seconds.

tnom = 27
temp = 27
method = trap
totiter = 1679
traniter = 0
tranpoints = 0
accept = 0
rejected = 0
matrix size = 98
fillins = 1003
solver = Normal
Matrix Compiler1:    6963 opcodes
Matrix Compiler2: 26.09 KB object code size  7.0/5.7/[3.4]

