Circuit: * C:\Users\Jan Frost\Desktop\ANS\ASLK_PRO\docs\spice\Experiment_09\9_1_2.asc

WARNING: Specified period is not longer than the sum of Trise, Tfall, and Ton for vg1.  Increasing period to 0.0001
Direct Newton iteration for .op point succeeded.

Date: Thu Apr 25 15:45:34 2019
Total elapsed time: 0.547 seconds.

tnom = 27
temp = 27
method = modified trap
totiter = 16658
traniter = 16639
tranpoints = 6124
accept = 4822
rejected = 1302
matrix size = 55
fillins = 108
solver = Normal
Matrix Compiler1: 8.52 KB object code size  4.8/3.4/[2.4]
Matrix Compiler2: 6.55 KB object code size  1.8/2.8/[1.6]

