Circuit: * C:\Users\Jan Frost\Desktop\Neuer Ordner\ASLK_PRO\docs\spice\Experiment_09\9_1_1.asc

Direct Newton iteration for .op point succeeded.

Date: Thu May 16 11:33:12 2019
Total elapsed time: 0.578 seconds.

tnom = 27
temp = 27
method = modified trap
totiter = 22766
traniter = 22739
tranpoints = 6458
accept = 4831
rejected = 1627
matrix size = 31
fillins = 44
solver = Normal
Matrix Compiler1: 3.32 KB object code size  2.1/1.5/[1.1]
Matrix Compiler2: 3.24 KB object code size  1.0/1.6/[1.0]

