Circuit: * C:\Users\Jan Frost\Desktop\ANS\ASLK_PRO\docs\spice\Experiment_09\9_1_2.asc

WARNING: Specified period is not longer than the sum of Trise, Tfall, and Ton for vg1.  Increasing period to 0.0001
Direct Newton iteration for .op point succeeded.

Date: Wed Apr 17 10:43:59 2019
Total elapsed time: 3.389 seconds.

tnom = 27
temp = 27
method = modified trap
totiter = 126200
traniter = 126182
tranpoints = 30264
accept = 21556
rejected = 8708
matrix size = 55
fillins = 115
solver = Normal
Matrix Compiler1: 9.66 KB object code size  5.3/3.7/[2.6]
Matrix Compiler2: off  [1.9]/2.9/2.0

