Circuit: * C:\Users\Jan Frost\Desktop\Neuer Ordner\ASLK_PRO\docs\spice\Experiment_09\9_1_2.asc

WARNING: Specified period is not longer than the sum of Trise, Tfall, and Ton for vg1.  Increasing period to 0.0001
Direct Newton iteration for .op point succeeded.

Date: Thu May 16 14:12:19 2019
Total elapsed time: 0.584 seconds.

tnom = 27
temp = 27
method = modified trap
totiter = 19105
traniter = 19083
tranpoints = 4810
accept = 3634
rejected = 1176
matrix size = 55
fillins = 115
solver = Normal
Matrix Compiler1: 9.66 KB object code size  5.3/3.8/[2.9]
Matrix Compiler2: 6.66 KB object code size  1.9/3.0/[1.7]

