Circuit: * C:\Users\Hann17-2-Stud02.AUSBBNETZA\Desktop\HS Bremen\19 SoSe\ANS\ASLK_PRO\docs\spice\Experiment_01\Aufgabe 1.3.1\Draft1.asc

Direct Newton iteration for .op point succeeded.



Date: Sat May 11 19:52:28 2019
Total elapsed time: 0.125 seconds.

tnom = 27
temp = 27
method = modified trap
totiter = 4017
traniter = 3993
tranpoints = 1613
accept = 1433
rejected = 180
matrix size = 62
fillins = 34
solver = Normal
Matrix Compiler1: 5.71 KB object code size  1.5/0.7/[0.6]
Matrix Compiler2: 5.82 KB object code size  0.6/0.9/[0.5]

