Circuit: * C:\Users\Jan Frost\Desktop\ANS\ASLK_PRO\docs\spice\Experiment_01\Aufgabe 1.3.1\Draft1.asc

WARNING: Specified period is not longer than the sum of Trise, Tfall, and Ton for vg1.  Increasing period to 4
Direct Newton iteration for .op point succeeded.

Date: Thu Mar 28 13:31:52 2019
Total elapsed time: 0.226 seconds.

tnom = 27
temp = 27
method = modified trap
totiter = 8312
traniter = 8285
tranpoints = 3548
accept = 2733
rejected = 815
matrix size = 31
fillins = 44
solver = Normal
Matrix Compiler1: 3.32 KB object code size  2.1/1.4/[1.1]
Matrix Compiler2: 3.24 KB object code size  1.0/1.6/[1.0]

