Circuit: * Z:\home\alexander\Hochschule\Projekte\ASLK_PRO\docs\spice\Experiment_01\Aufgabe 1.3.1\Experiment_01.asc

Direct Newton iteration for .op point succeeded.

Date: Sun Mar 10 19:32:02 2019
Total elapsed time: 0.190 seconds.

tnom = 27
temp = 27
method = modified trap
totiter = 2607
traniter = 2589
tranpoints = 1263
accept = 1219
rejected = 44
matrix size = 74
fillins = 102
solver = Normal
Thread vector: 24.3/18.4[2] 4.8/5.1[1] 3.9/3.6[1] 1.4/2.9[1]  2592/500
Matrix Compiler1: 8.78 KB object code size  4.7/2.3/[1.9]
Matrix Compiler2: 8.15 KB object code size  2.2/2.4/[2.0]


