Circuit: * C:\users\selimcimen\Meine Dokumente\LTspice\Analoge_Schaltungen\Experiment_01\regfeedback.asc

Direct Newton iteration for .op point succeeded.

Date: Tue Feb 19 13:07:41 2019
Total elapsed time: 0.048 seconds.

tnom = 27
temp = 27
method = trap
totiter = 205
traniter = 0
tranpoints = 0
accept = 0
rejected = 0
matrix size = 29
fillins = 32
solver = Normal
Matrix Compiler1: 2.75 KB object code size  0.6/0.4/[0.3]
Matrix Compiler2: 2.91 KB object code size  0.3/0.4/[0.2]

