Circuit: * C:\users\selimcimen\Meine Dokumente\LTspice\Analoge_Schaltungen\Experiment_02\Aufgabe 2.2.1\regfeedback.asc

.dc sweep increment has wrong sign -- fixing...
Direct Newton iteration for .op point succeeded.

Date: Mon Mar 04 12:00:18 2019
Total elapsed time: 0.087 seconds.

tnom = 27
temp = 27
method = trap
totiter = 203
traniter = 0
tranpoints = 0
accept = 0
rejected = 0
matrix size = 29
fillins = 32
solver = Normal
Matrix Compiler1: 2.75 KB object code size  0.6/0.3/[0.3]
Matrix Compiler2: 2.91 KB object code size  0.3/0.4/[0.3]

