Circuit: * C:\users\selimcimen\Meine Dokumente\LTspice\Analoge_Schaltungen\Experiment_01\DCsweep.asc


Date: Mon Feb 18 14:36:37 2019
Total elapsed time: 0.058 seconds.

tnom = 27
temp = 27
method = trap
totiter = 79
traniter = 0
tranpoints = 0
accept = 0
rejected = 0
matrix size = 29
fillins = 32
solver = Normal
Matrix Compiler1: 2.75 KB object code size
Matrix Compiler2: 2.91 KB object code size
