Circuit: * C:\Users\Jan Frost\Desktop\ANS\ASLK_PRO\docs\spice\Experiment_10\exp_10_2.asc

V1: Missing value, assumed 0V @ DC
Direct Newton iteration failed to find .op point.  (Use ".option noopiter" to skip.)
Starting Gmin stepping
Increasing initial diagonal Gmin to 100
Increasing initial diagonal Gmin to 1000
Increasing initial diagonal Gmin to 10000
Increasing initial diagonal Gmin to 100000
Increasing initial diagonal Gmin to 1e+006
Initial Gmin=1e+006 failed
Gmin stepping failed

Starting source stepping with srcstepmethod=0
Could not converge to DC with sources off!
Starting source stepping with srcstepmethod=1
Source Step = 3.0303%
Source Step = 33.3333%
Source Step = 63.6364%
vernier = 0.25
Source Step = 61.1299%
Source Step = 61.1594%
Source Step = 61.189%
Source Step = 61.2186%
Source Step = 61.2482%
Source stepping failed

Pseudo Transient failed in finding the operating point at 8.30737 s.

Date: Thu Jun 20 15:38:52 2019
Total elapsed time: 7670.242 seconds.

tnom = 27
temp = 27
method = trap
totiter = 577249268
traniter = 0
tranpoints = 0
accept = 0
rejected = 15190599
matrix size = 29
fillins = 44
solver = Normal
Matrix Compiler1:     209 opcodes  2.3/[1.7]/15.6
Matrix Compiler2: off  [0.9]/1.6/7.0

