Circuit: * C:\Users\Jan Frost\Desktop\ANS\ASLK_PRO\docs\spice\Experiment_10\exp_10_1.asc

WARNING: Node NC_01 is floating.

V1: Missing value, assumed 0V @ DC
Direct Newton iteration failed to find .op point.  (Use ".option noopiter" to skip.)
Starting Gmin stepping
Increasing initial diagonal Gmin to 100
Increasing initial diagonal Gmin to 1000
Increasing initial diagonal Gmin to 10000
Increasing initial diagonal Gmin to 100000
Increasing initial diagonal Gmin to 1e+006
Initial Gmin=1e+006 failed
Gmin stepping failed

Starting source stepping with srcstepmethod=0
Could not converge to DC with sources off!
Starting source stepping with srcstepmethod=1
Source Step = 3.0303%
Source Step = 33.3333%
Source Step = 63.6364%
Source Step = 93.9394%
Source stepping succeeded in finding the operating point.

Direct Newton iteration failed to find .op point.  (Use ".option noopiter" to skip.)
Starting Gmin stepping
Increasing initial diagonal Gmin to 100
Increasing initial diagonal Gmin to 1000
Increasing initial diagonal Gmin to 10000
Increasing initial diagonal Gmin to 100000
Increasing initial diagonal Gmin to 1e+006
Initial Gmin=1e+006 failed
Gmin stepping failed

Starting source stepping with srcstepmethod=1
Could not converge to DC with sources off!
Starting source stepping with srcstepmethod=0
Source Step = 3.0303%
Source Step = 33.3333%
Source Step = 63.6364%
Source Step = 77.6515%
Source Step = 78.2079%
Source Step = 78.2345%
Source Step = 78.2641%
Source stepping failed

Pseudo Transient succeeded in finding the operating point at 327.693 ms.

Date: Wed Jun 26 15:15:41 2019
Total elapsed time: 0.297 seconds.

tnom = 27
temp = 27
method = trap
totiter = 7960
traniter = 0
tranpoints = 0
accept = 0
rejected = 4
matrix size = 29
fillins = 36
solver = Normal
Matrix Compiler1:     185 opcodes  2.1/[1.6]/27.6
Matrix Compiler2: off  [0.9]/1.5/13.2

